1.C
     RDKit          3D

  0  0  0  0  0  0  0  0  0  0999 V3000
M  V30 BEGIN CTAB
M  V30 COUNTS 43 50 0 0 0
M  V30 BEGIN ATOM
M  V30 1 C 38.084000 2.453000 11.203000 0
M  V30 2 C 37.349000 5.339000 7.488000 0
M  V30 3 C 32.904000 6.170000 9.172000 0
M  V30 4 C 33.710000 3.338000 12.932000 0
M  V30 5 C 38.253000 3.145000 10.042000 0
M  V30 6 C 39.498000 3.163000 9.301000 0
M  V30 7 C 39.252000 3.984000 8.253000 0
M  V30 8 C 37.923000 4.467000 8.377000 0
M  V30 9 C 40.219000 4.239000 7.078000 0
M  V30 10 C 40.781000 2.303000 9.305000 0
M  V30 11 C 40.856000 0.850000 8.860000 0
M  V30 12 C 39.506000 0.169000 8.798000 0
M  V30 13 O 39.102000 -0.425000 9.819000 0
M  V30 14 O 38.852000 0.225000 7.733000 0
M  V30 15 C 36.047000 5.809000 7.593000 0
M  V30 16 C 35.436000 6.764000 6.681000 0
M  V30 17 C 34.178000 7.007000 7.167000 0
M  V30 18 C 34.035000 6.172000 8.359000 0
M  V30 19 C 36.031000 7.334000 5.371000 0
M  V30 20 C 33.216000 7.991000 6.823000 0
M  V30 21 C 33.239000 9.089000 5.937000 0
M  V30 22 C 32.727000 5.463000 10.352000 0
M  V30 23 C 31.588000 5.616000 11.240000 0
M  V30 24 C 31.836000 4.815000 12.309000 0
M  V30 25 C 33.094000 4.200000 12.059000 0
M  V30 26 C 30.394000 6.567000 11.017000 0
M  V30 27 C 31.146000 4.632000 13.544000 0
M  V30 28 C 29.977000 5.269000 14.051000 0
M  V30 29 C 34.973000 2.797000 12.754000 0
M  V30 30 C 35.625000 1.961000 13.741000 0
M  V30 31 C 36.844000 1.764000 13.242000 0
M  V30 32 C 36.945000 2.429000 11.972000 0
M  V30 33 C 35.021000 1.358000 14.998000 0
M  V30 34 C 38.057000 1.152000 13.864000 0
M  V30 35 C 38.571000 1.921000 15.060000 0
M  V30 36 C 39.919000 1.414000 15.491000 0
M  V30 37 O 40.022000 0.869000 16.612000 0
M  V30 38 O 40.875000 1.547000 14.692000 0
M  V30 39 N 37.298000 3.940000 9.488000 0
M  V30 40 N 35.178000 5.440000 8.621000 0
M  V30 41 N 33.637000 4.608000 10.860000 0
M  V30 42 N 35.802000 3.057000 11.670000 0
M  V30 43 Fe 35.478000 4.222000 10.130000 0 CFG=1 VAL=4
M  V30 END ATOM
M  V30 BEGIN BOND
M  V30 1 1 1 5
M  V30 2 2 1 32 CFG=2
M  V30 3 1 2 8
M  V30 4 2 2 15 CFG=2
M  V30 5 1 3 18
M  V30 6 2 3 22 CFG=2
M  V30 7 2 4 25 CFG=2
M  V30 8 1 4 29
M  V30 9 2 5 6
M  V30 10 1 5 39
M  V30 11 1 6 7
M  V30 12 1 6 10
M  V30 13 2 7 8
M  V30 14 1 7 9
M  V30 15 1 8 39
M  V30 16 1 10 11
M  V30 17 1 11 12
M  V30 18 2 12 13
M  V30 19 1 12 14
M  V30 20 1 15 16
M  V30 21 1 15 40
M  V30 22 2 16 17
M  V30 23 1 16 19
M  V30 24 1 17 18
M  V30 25 1 17 20
M  V30 26 2 18 40
M  V30 27 2 20 21
M  V30 28 1 22 23
M  V30 29 1 22 41
M  V30 30 2 23 24
M  V30 31 1 23 26
M  V30 32 1 24 25
M  V30 33 1 24 27
M  V30 34 1 25 41
M  V30 35 2 27 28
M  V30 36 1 29 30
M  V30 37 2 29 42
M  V30 38 2 30 31
M  V30 39 1 30 33
M  V30 40 1 31 32
M  V30 41 1 31 34
M  V30 42 1 32 42
M  V30 43 1 34 35
M  V30 44 1 35 36
M  V30 45 2 36 37
M  V30 46 1 36 38
M  V30 47 1 39 43
M  V30 48 9 40 43
M  V30 49 1 41 43
M  V30 50 9 42 43
M  V30 END BOND
M  V30 END CTAB
M  END
$$$$
